6
HF/6-31G
C       0.1736978      -0.6127788       0.0000000
C       0.0618925       0.6926436       0.0000000
F       1.4083027      -1.2238970      -0.0000000
H      -0.6157236      -1.3309144      -0.0000000
H       0.9236831       1.3283044       0.0000000
H      -0.9058792       1.1499859       0.0000000
