6
HF/6-31G
C       0.0000322      -0.6609979       0.0000000
C       0.0000322       0.6609979      -0.0000000
H       0.9114505      -1.2291288       0.0000000
H      -0.9114827      -1.2289599       0.0000000
H       0.9114505       1.2291288      -0.0000000
H      -0.9114827       1.2289599      -0.0000000
