49

O             -4.444356148300        -1.519231405669         0.133818802956
O             -5.717728473424         0.942316237086        -0.066968962396
O              5.074944380112         0.621839630722         0.095361864009
C             -1.218663248679        -0.830595956308        -0.247223992768
C             -0.477629871511         0.497184226791        -0.529673918529
C             -2.930011813590         0.109407860554         1.091647841024
C             -1.787420846331        -0.894913983905         1.174595923880
C             -2.515711138491        -0.855946194540        -1.095040548846
C              0.968464285398         0.594394878134         0.023051359150
C             -3.654907965826        -0.372192923668        -0.180394141422
C             -0.338906858539        -2.036979464433        -0.583399668258
C             -1.380813476472         1.698304225777        -0.180085905847
C             -2.322111192586         1.507002611293         1.012160926977
C              1.723598180203        -0.686836785339        -0.399658653325
C              1.033616297128        -1.956732648516         0.075560115874
C              1.068852139151         0.833440819862         1.537692826584
C             -4.585050097839         0.655858178693        -0.853861880085
C              1.691896058511         1.770006746900        -0.620577515432
C              3.162347118014        -0.539762374924        -0.024338881740
C              3.026560322778         1.832733770694        -0.661355332056
C              3.761395103265         0.686565534847        -0.201084927987
C              4.186018037272        -1.411360657395         0.402952793555
C              5.318365378847        -0.649258410860         0.464736569034
H             -0.335036180683         0.523105134952        -1.619153335984
H             -3.599176954096         0.065966348093         1.957690684664
H             -1.080856355109        -0.645807578441         1.956928694655
H             -2.177294048983        -1.897906384653         1.358785220594
H             -2.433801681300        -0.246547664772        -1.993148048283
H             -2.750703334368        -1.876555715621        -1.397466956806
H             -0.203126601759        -2.084320493005        -1.667436130424
H             -0.851890375365        -2.949981497842        -0.273589578941
H             -1.983411213175         1.924016483574        -1.061330676925
H             -0.767945077172         2.580213930262         0.010339706865
H             -1.779556090234         1.670505612833         1.945822615459
H             -3.112392348725         2.258845075562         0.965603116349
H              1.702548680040        -0.706998814070        -1.502646038847
H              0.940906440249        -1.969012908147         1.160909209162
H              1.629806822589        -2.823430346797        -0.216840792668
H              2.103739193839         1.037127297702         1.803288498697
H              0.473184324759         1.693615965109         1.827260296171
H              0.749302119412        -0.028513839353         2.112157924155
H             -4.890341940957         0.251895622750        -1.829136457420
H             -4.081362417860         1.607147612840        -1.012173100014
H              1.101176933735         2.597977027327        -0.978171475143
H             -4.939036199772        -1.335514044125         0.940761097787
H              3.561011194929         2.688548100827        -1.042815340861
H              4.105646417170        -2.452204647179         0.640894394432
H             -6.244800187656         0.136371594042        -0.009353562143
H              6.323262711403        -0.890385787665         0.749405341117
